ZYH005.sdf
  ChemDraw10082222102D

 28 32  0  0  0  0  0  0  0  0999 V2000
   -2.5714   -0.6166    0.0000 C   0  0  0  0  0  0  0  0  0  0  0  0
   -2.5714   -1.4387    0.0000 C   0  0  0  0  0  0  0  0  0  0  0  0
   -1.8594   -1.8498    0.0000 C   0  0  0  0  0  0  0  0  0  0  0  0
   -1.1474   -1.4387    0.0000 C   0  0  0  0  0  0  0  0  0  0  0  0
   -1.1474   -0.6166    0.0000 C   0  0  0  0  0  0  0  0  0  0  0  0
   -1.8594   -0.2055    0.0000 C   0  0  0  0  0  0  0  0  0  0  0  0
   -3.3533   -0.3625    0.0000 O   0  0  0  0  0  0  0  0  0  0  0  0
   -3.8365   -1.0277    0.0000 C   0  0  0  0  0  0  0  0  0  0  0  0
   -3.3533   -1.6928    0.0000 O   0  0  0  0  0  0  0  0  0  0  0  0
   -0.4354   -1.8498    0.0000 C   0  0  0  0  0  0  0  0  0  0  0  0
    0.2766   -1.4387    0.0000 C   0  0  0  0  0  0  0  0  0  0  0  0
    0.2766   -0.6166    0.0000 N   0  0  0  0  0  0  0  0  0  0  0  0
   -0.4354   -0.2055    0.0000 C   0  0  0  0  0  0  0  0  0  0  0  0
   -0.4354   -2.6719    0.0000 C   0  0  0  0  0  0  0  0  0  0  0  0
    0.2766   -3.0830    0.0000 C   0  0  0  0  0  0  0  0  0  0  0  0
    0.9886   -2.6719    0.0000 C   0  0  0  0  0  0  0  0  0  0  0  0
    0.9886   -1.8498    0.0000 C   0  0  0  0  0  0  0  0  0  0  0  0
   -0.4354    0.6166    0.0000 O   0  0  0  0  0  0  0  0  0  0  0  0
    0.9886   -0.2055    0.0000 C   0  0  0  0  0  0  0  0  0  0  0  0
    0.9886    0.6166    0.0000 C   0  0  0  0  0  0  0  0  0  0  0  0
    1.7006    1.0277    0.0000 C   0  0  0  0  0  0  0  0  0  0  0  0
    2.4125    0.6166    0.0000 C   0  0  0  0  0  0  0  0  0  0  0  0
    3.1245    1.0277    0.0000 C   0  0  0  0  0  0  0  0  0  0  0  0
    3.1245    1.8498    0.0000 C   0  0  0  0  0  0  0  0  0  0  0  0
    2.4125    2.2609    0.0000 C   0  0  0  0  0  0  0  0  0  0  0  0
    1.7006    1.8498    0.0000 C   0  0  0  0  0  0  0  0  0  0  0  0
    3.8365    2.2609    0.0000 O   0  0  0  0  0  0  0  0  0  0  0  0
    3.8365    3.0830    0.0000 C   0  0  0  0  0  0  0  0  0  0  0  0
  1  2  2  0      
  2  3  1  0      
  3  4  2  0      
  4  5  1  0      
  5  6  2  0      
  6  1  1  0      
  1  7  1  0      
  7  8  1  0      
  8  9  1  0      
  9  2  1  0      
  4 10  1  0      
 10 11  2  0      
 11 12  1  0      
 12 13  1  0      
 13  5  1  0      
 10 14  1  0      
 14 15  2  0      
 15 16  1  0      
 16 17  2  0      
 17 11  1  0      
 13 18  2  0      
 12 19  1  0      
 19 20  1  0      
 20 21  1  0      
 21 22  2  0      
 22 23  1  0      
 23 24  2  0      
 24 25  1  0      
 25 26  2  0      
 26 21  1  0      
 24 27  1  0      
 27 28  1  0      
M  END
$$$$
